7
-252.807197014639 | wB97M-V/aug-cc-pVTZ
O        -0.1183240285    0.0155587992    0.0968332901
H         0.3689640353   -0.4731863729   -0.6514005978
H        -0.0699508546    0.9293771836   -0.1900852684
O         3.1801277632    0.2172524950   -0.7831988748
H         2.7740899755    0.3457727397    0.0774146719
H         2.4605651947   -0.3035461666   -1.2605158927
F         1.1966354094   -1.0454444409   -1.7738540483
