3
-75.58547595571959
O         -0.00059        0.00000       -0.00045
H          0.92561        0.00000       -0.24811
H         -0.00009        0.00000        0.95829
3
-75.58547595571959
O         -0.00059        0.00000       -0.00045
H          0.92561        0.00000       -0.24811
H         -0.00009        0.00000        0.95829
3
-75.58547595571959
O         -0.00059        0.00000       -0.00045
H          0.92561        0.00000       -0.24811
H         -0.00009        0.00000        0.95829
3
-75.58547595571959
O         -0.00059        0.00000       -0.00045
H          0.92561        0.00000       -0.24811
H         -0.00009        0.00000        0.95829
3
-75.58547595571959
O         -0.00059        0.00000       -0.00045
H          0.92561        0.00000       -0.24811
H         -0.00009        0.00000        0.95829
3
-75.58547595571959
O         -0.00059        0.00000       -0.00045
H          0.92561        0.00000       -0.24811
H         -0.00009        0.00000        0.95829
3
-75.58547595571959
O         -0.00059        0.00000       -0.00045
H          0.92561        0.00000       -0.24811
H         -0.00009        0.00000        0.95829
3
-75.58547595571959
O         -0.00059        0.00000       -0.00045
H          0.92561        0.00000       -0.24811
H         -0.00009        0.00000        0.95829
3
-75.58547595571959
O         -0.00059        0.00000       -0.00045
H          0.92561        0.00000       -0.24811
H         -0.00009        0.00000        0.95829
3
-75.58547595571959
O         -0.00059        0.00000       -0.00045
H          0.92561        0.00000       -0.24811
H         -0.00009        0.00000        0.95829
