9
0.00393843 -228.03329055 152.05318064 152.13254844 152.05318064 -76.06722691 -76.06722691 -76.06722691 
O -0.0005900753 0.0 -0.000452674
H 0.9256102457 0.0 -0.2481132352
H -9.30743e-05 0.0 0.9582869092
O -0.0005900753 2.0 -0.000452674
H 0.9256102457 2.0 -0.2481132352
H -9.30743e-05 2.0 0.9582869092
O -0.0005900753 4.0 -0.000452674
H 0.9256102457 4.0 -0.2481132352
H -9.30743e-05 4.0 0.9582869092
