3
-75.58547600
O -0.0005900753 0.0 -0.000452674
H 0.9256102457 0.0 -0.2481132352
H -9.30743e-05 0.0 0.9582869092

3
-75.58547600
O -0.0005900753 0.0 -0.000452674
H 0.9256102457 0.0 -0.2481132352
H -9.30743e-05 0.0 0.9582869092

3
-75.58547600
O -0.0005900753 0.0 -0.000452674
H 0.9256102457 0.0 -0.2481132352
H -9.30743e-05 0.0 0.9582869092

3
-75.58547600
O -0.0005900753 0.0 -0.000452674
H 0.9256102457 0.0 -0.2481132352
H -9.30743e-05 0.0 0.9582869092

3
-75.58547600
O -0.0005900753 0.0 -0.000452674
H 0.9256102457 0.0 -0.2481132352
H -9.30743e-05 0.0 0.9582869092

3
-75.58547600
O -0.0005900753 0.0 -0.000452674
H 0.9256102457 0.0 -0.2481132352
H -9.30743e-05 0.0 0.9582869092

3
-75.58547600
O -0.0005900753 0.0 -0.000452674
H 0.9256102457 0.0 -0.2481132352
H -9.30743e-05 0.0 0.9582869092

3
-75.58547600
O -0.0005900753 0.0 -0.000452674
H 0.9256102457 0.0 -0.2481132352
H -9.30743e-05 0.0 0.9582869092

3
-75.58547600
O -0.0005900753 0.0 -0.000452674
H 0.9256102457 0.0 -0.2481132352
H -9.30743e-05 0.0 0.9582869092

3
-75.58547600
O -0.0005900753 0.0 -0.000452674
H 0.9256102457 0.0 -0.2481132352
H -9.30743e-05 0.0 0.9582869092

