7
-940.908216930965
P         0.0000000000   -0.0000000730   -0.0000000156
F         1.6206577326    0.0000000000    0.0000000070
F        -1.6206577679    0.0000000000    0.0000000066
F         0.0000000128    1.6206577903    0.0000000175
F         0.0000000129   -1.6206577183    0.0000000105
F         0.0000000102    0.0000000000    1.6206577392
F         0.0000000098    0.0000000000   -1.6206577633

