9
0.00225164 -226.61360606 151.10183299 151.16861970 151.10183299 -75.58547600 -75.58547600 -75.58547600 
O -0.0005900753 0.0 -0.000452674
H 0.9256102457 0.0 -0.2481132352
H -9.30743e-05 0.0 0.9582869092
O -0.0005900753 2.0 -0.000452674
H 0.9256102457 2.0 -0.2481132352
H -9.30743e-05 2.0 0.9582869092
O -0.0005900753 4.0 -0.000452674
H 0.9256102457 4.0 -0.2481132352
H -9.30743e-05 4.0 0.9582869092
9
0.00225164 -226.61360606 151.10183299 151.16861970 151.10183299 -75.58547600 -75.58547600 -75.58547600 
O -0.0005900753 0.0 -0.000452674
H 0.9256102457 0.0 -0.2481132352
H -9.30743e-05 0.0 0.9582869092
O -0.0005900753 2.0 -0.000452674
H 0.9256102457 2.0 -0.2481132352
H -9.30743e-05 2.0 0.9582869092
O -0.0005900753 4.0 -0.000452674
H 0.9256102457 4.0 -0.2481132352
H -9.30743e-05 4.0 0.9582869092
9
0.00225164 -226.61360606 151.10183299 151.16861970 151.10183299 -75.58547600 -75.58547600 -75.58547600 
O -0.0005900753 0.0 -0.000452674
H 0.9256102457 0.0 -0.2481132352
H -9.30743e-05 0.0 0.9582869092
O -0.0005900753 2.0 -0.000452674
H 0.9256102457 2.0 -0.2481132352
H -9.30743e-05 2.0 0.9582869092
O -0.0005900753 4.0 -0.000452674
H 0.9256102457 4.0 -0.2481132352
H -9.30743e-05 4.0 0.9582869092
9
0.00225164 -226.61360606 151.10183299 151.16861970 151.10183299 -75.58547600 -75.58547600 -75.58547600 
O -0.0005900753 0.0 -0.000452674
H 0.9256102457 0.0 -0.2481132352
H -9.30743e-05 0.0 0.9582869092
O -0.0005900753 2.0 -0.000452674
H 0.9256102457 2.0 -0.2481132352
H -9.30743e-05 2.0 0.9582869092
O -0.0005900753 4.0 -0.000452674
H 0.9256102457 4.0 -0.2481132352
H -9.30743e-05 4.0 0.9582869092
9
0.00225164 -226.61360606 151.10183299 151.16861970 151.10183299 -75.58547600 -75.58547600 -75.58547600 
O -0.0005900753 0.0 -0.000452674
H 0.9256102457 0.0 -0.2481132352
H -9.30743e-05 0.0 0.9582869092
O -0.0005900753 2.0 -0.000452674
H 0.9256102457 2.0 -0.2481132352
H -9.30743e-05 2.0 0.9582869092
O -0.0005900753 4.0 -0.000452674
H 0.9256102457 4.0 -0.2481132352
H -9.30743e-05 4.0 0.9582869092
9
0.00225164 -226.61360606 151.10183299 151.16861970 151.10183299 -75.58547600 -75.58547600 -75.58547600 
O -0.0005900753 0.0 -0.000452674
H 0.9256102457 0.0 -0.2481132352
H -9.30743e-05 0.0 0.9582869092
O -0.0005900753 2.0 -0.000452674
H 0.9256102457 2.0 -0.2481132352
H -9.30743e-05 2.0 0.9582869092
O -0.0005900753 4.0 -0.000452674
H 0.9256102457 4.0 -0.2481132352
H -9.30743e-05 4.0 0.9582869092
9
0.00225164 -226.61360606 151.10183299 151.16861970 151.10183299 -75.58547600 -75.58547600 -75.58547600 
O -0.0005900753 0.0 -0.000452674
H 0.9256102457 0.0 -0.2481132352
H -9.30743e-05 0.0 0.9582869092
O -0.0005900753 2.0 -0.000452674
H 0.9256102457 2.0 -0.2481132352
H -9.30743e-05 2.0 0.9582869092
O -0.0005900753 4.0 -0.000452674
H 0.9256102457 4.0 -0.2481132352
H -9.30743e-05 4.0 0.9582869092
9
0.00225164 -226.61360606 151.10183299 151.16861970 151.10183299 -75.58547600 -75.58547600 -75.58547600 
O -0.0005900753 0.0 -0.000452674
H 0.9256102457 0.0 -0.2481132352
H -9.30743e-05 0.0 0.9582869092
O -0.0005900753 2.0 -0.000452674
H 0.9256102457 2.0 -0.2481132352
H -9.30743e-05 2.0 0.9582869092
O -0.0005900753 4.0 -0.000452674
H 0.9256102457 4.0 -0.2481132352
H -9.30743e-05 4.0 0.9582869092
9
0.00225164 -226.61360606 151.10183299 151.16861970 151.10183299 -75.58547600 -75.58547600 -75.58547600 
O -0.0005900753 0.0 -0.000452674
H 0.9256102457 0.0 -0.2481132352
H -9.30743e-05 0.0 0.9582869092
O -0.0005900753 2.0 -0.000452674
H 0.9256102457 2.0 -0.2481132352
H -9.30743e-05 2.0 0.9582869092
O -0.0005900753 4.0 -0.000452674
H 0.9256102457 4.0 -0.2481132352
H -9.30743e-05 4.0 0.9582869092
9
0.00225164 -226.61360606 151.10183299 151.16861970 151.10183299 -75.58547600 -75.58547600 -75.58547600 
O -0.0005900753 0.0 -0.000452674
H 0.9256102457 0.0 -0.2481132352
H -9.30743e-05 0.0 0.9582869092
O -0.0005900753 2.0 -0.000452674
H 0.9256102457 2.0 -0.2481132352
H -9.30743e-05 2.0 0.9582869092
O -0.0005900753 4.0 -0.000452674
H 0.9256102457 4.0 -0.2481132352
H -9.30743e-05 4.0 0.9582869092
